/*--------------------------------*- C++ -*----------------------------------*\
| =========                 |                                                 |
| \\      /  F ield         | OpenFOAM: The Open Source CFD Toolbox           |
|  \\    /   O peration     | Version:  v1912                                 |
|   \\  /    A nd           | Website:  www.openfoam.com                      |
|    \\/     M anipulation  |                                                 |
\*---------------------------------------------------------------------------*/
FoamFile
{
    version     2.0;
    format      ascii;
    class       dictionary;
    location    "constant";
    object      dynamicMeshDict;
}
// * * * * * * * * * * * * * * * * * * * * * * * * * * * * * * * * * * * * * //

dynamicFvMesh   dynamicRefineFvMesh;

// How often to refine
refineInterval  10;

// Field to be refinement on
field           alpha.solid;

// Refine field inbetween lower..upper
lowerRefineLevel 0.01;
upperRefineLevel 0.5;

// If value < unrefineLevel unrefine
unrefineLevel   0.0;

// Have slower than 2:1 refinement
nBufferLayers   1;

// Refine cells only up to maxRefinement levels
maxRefinement   1;

// Stop refinement if maxCells reached
maxCells        1500000;

// Flux field and corresponding velocity field. Fluxes on changed
// faces get recalculated by interpolating the velocity. Use 'none'
// on surfaceScalarFields that do not need to be reinterpolated.
correctFluxes
(
    (phi none)
    (phi.solid none)
    (nHatf none)
    (rhoPhi none)
    (alphaPhi.liquid none)
    (ghf none)
    (phi0 none)
    (dVf_ none)
    (phi_0_0 none)
    (ddtCorrDdt0(phi) none)
    (alphaPhi.solid none)
    (phi_0 none)
);

// Write the refinement level as a volScalarField
dumpLevel       true;


// ************************************************************************* //
