/*--------------------------------*- C++ -*----------------------------------*\
| =========                 |                                                 |
| \\      /  F ield         | OpenFOAM: The Open Source CFD Toolbox           |
|  \\    /   O peration     | Version:  v1906                                 |
|   \\  /    A nd           | Web:      www.OpenFOAM.com                      |
|    \\/     M anipulation  |                                                 |
\*---------------------------------------------------------------------------*/
FoamFile
{
    version     2.0;
    format      ascii;
    class       dictionary;
    object      phaseProperties;
}
// * * * * * * * * * * * * * * * * * * * * * * * * * * * * * * * * * * * * * //
type    massTransferMultiphaseSystem;

phases  (liquid solid);

liquid
{
    type            pureMovingPhaseModel;
}

solid
{
    type            pureStaticSolidPhaseModel;
}

interfacePorous
(
    (solid and liquid)
    {
        type            VollerPrakash;
        solidPhase      alpha.solid;
        Cu              1e12;
    }
);

massTransferModel
(
    (liquid to solid)
    {
        type            precipitate;
        C               1E-3;
        Tactivate       310;
    	Cactivate   	2.0;
	    Mv		        1000.0;
        alphaSolidMin   0.99;
        smoothSurface   true;
        smoothAreaDensity 10;
    }
);

// ************************************************************************* //
