/*--------------------------------*- C++ -*----------------------------------*\
| =========                 |                                                 |
| \\      /  F ield         | OpenFOAM: The Open Source CFD Toolbox           |
|  \\    /   O peration     | Version:  v1906                                 |
|   \\  /    A nd           | Web:      www.OpenFOAM.com                      |
|    \\/     M anipulation  |                                                 |
\*---------------------------------------------------------------------------*/
FoamFile
{
    version     2.0;
    format      ascii;
    class       volVectorField;
    object      U;
}
// * * * * * * * * * * * * * * * * * * * * * * * * * * * * * * * * * * * * * //

dimensions      [0 1 -1 0 0 0 0];

internalField   uniform (0 0 0);

boundaryField
{
    left
    {
        type            pressureInletOutletVelocity;
        value           uniform (0 0 0);
        inletValue      uniform (0 0 0);
    }
    top
    {
        type            noSlip;
    }
    bottom
    {
        type            noSlip;
    }
    right
    {
        type            fixedValue;
        value           (-0.0005 0 0);
    }
    front
    {
        type            noSlip;
    }
    back
    {
        type            noSlip;
    }

}


// ************************************************************************* //
