/*------------------------------*- C++ -*--------------------------------*\ 
| =========                 |                                             | 
| \\      /  F ield         | OpenFOAM: The Open Source CFD Toolbox       | 
|  \\    /   O peration     | Version:  2.4.0                             | 
|   \\  /    A nd           | Web:      www.openfoam.com                  | 
|    \\/     M anipulation  |                                             | 
\*-----------------------------------------------------------------------*/ 
FoamFile 
{ 
    version     2.0; 
    format      ascii; 
    class       dictionary; 
    object      blockMeshDict; 
} 
// * * * * * * * * * * * * * * * * * * * * * * * * * * * * * * * * * * * // 

convertToMeters 1;

vertices
(
    ( -0.5    -8.5    -8.5  )
    ( 15.5    -8.5    -8.5  )
    ( 15.5     8.5    -8.5  )
    ( -0.5     8.5    -8.5  )
    ( -0.5    -8.5     8.5  )
    ( 15.5    -8.5     8.5  )
    ( 15.5     8.5     8.5  )
    ( -0.5     8.5     8.5  )
);

edges
(
);

blocks
(
    hex (0  1  2  3  4  5  6  7) (48 51 51)
    simpleGrading (
      1
      1
      1
    )
);

boundary
(
    outlet
    {
      type patch;
      faces
      (
        (1  2  6  5)
      );
    }

    inlet
    {
      type patch;
      faces
      (
        (0  3  7  4)
      );
    }

    insoluble_container
    {
      type patch;
      faces
      (
        (0  1  2  3)
        (0  1  5  4)
        (4  5  6  7)
        (3  2  6  7)
      );
    }
);

mergePatchPairs
(
);

// ********************************************************************* //
