/*--------------------------------*- C++ -*----------------------------------*\
| =========                 |                                                 |
| \\      /  F ield         | OpenFOAM: The Open Source CFD Toolbox           |
|  \\    /   O peration     | Version:  v1906                                 |
|   \\  /    A nd           | Web:      www.OpenFOAM.com                      |
|    \\/     M anipulation  |                                                 |
\*---------------------------------------------------------------------------*/
FoamFile
{
    version     2.0;
    format      ascii;
    class       dictionary;
    location    "system";
    object      setFieldsDict;
}
// * * * * * * * * * * * * * * * * * * * * * * * * * * * * * * * * * * * * * //

defaultFieldValues
(
    volScalarFieldValue alpha.solid     0
    volScalarFieldValue alpha.liquid    1
);

regions
(
    sphereToCell
    {
        centre (0.00069877 0 0);
        radius 0.0001;
        fieldValues
        (
            volScalarFieldValue alpha.solid     1
	        volScalarFieldValue alpha.liquid    0
	        volScalarFieldValue C               0 
            volScalarFieldValue diffCo          0
        );
    }
);


// ************************************************************************* //
