/*--------------------------------*- C++ -*----------------------------------*\
| =========                 |                                                 |
| \\      /  F ield         | OpenFOAM: The Open Source CFD Toolbox           |
|  \\    /   O peration     | Version:  v1906                                 |
|   \\  /    A nd           | Web:      www.OpenFOAM.com                      |
|    \\/     M anipulation  |                                                 |
\*---------------------------------------------------------------------------*/
FoamFile
{
    version     2.0;
    format      ascii;
    class       polyBoundaryMesh;
    location    "constant/polyMesh";
    object      boundary;
}
// * * * * * * * * * * * * * * * * * * * * * * * * * * * * * * * * * * * * * //

6
(
    outlet
    {
        type            patch;
        nFaces          0;
        startFace       138952;
    }
    inlet
    {
        type            patch;
        nFaces          1199;
        startFace       138952;
    }
    capillary_surface
    {
        type            patch;
        nFaces          6348;
        startFace       140151;
    }
    particle_surface
    {
        type            patch;
        nFaces          1834;
        startFace       146499;
    }
    procBoundary2to0
    {
        type            processor;
        inGroups        1(processor);
        nFaces          1926;
        startFace       148333;
        matchTolerance  0.0001;
        transform       unknown;
        myProcNo        2;
        neighbProcNo    0;
    }
    procBoundary2to3
    {
        type            processor;
        inGroups        1(processor);
        nFaces          1744;
        startFace       150259;
        matchTolerance  0.0001;
        transform       unknown;
        myProcNo        2;
        neighbProcNo    3;
    }
)

// ************************************************************************* //
