/*--------------------------------*- C++ -*----------------------------------*\
| =========                 |                                                 |
| \\      /  F ield         | OpenFOAM: The Open Source CFD Toolbox           |
|  \\    /   O peration     | Version:  v1906                                 |
|   \\  /    A nd           | Web:      www.OpenFOAM.com                      |
|    \\/     M anipulation  |                                                 |
\*---------------------------------------------------------------------------*/
FoamFile
{
    version     2.0;
    format      ascii;
    class       polyBoundaryMesh;
    location    "constant/polyMesh";
    object      boundary;
}
// * * * * * * * * * * * * * * * * * * * * * * * * * * * * * * * * * * * * * //

6
(
    outlet
    {
        type            patch;
        nFaces          0;
        startFace       139746;
    }
    inlet
    {
        type            patch;
        nFaces          1222;
        startFace       139746;
    }
    capillary_surface
    {
        type            patch;
        nFaces          6348;
        startFace       140968;
    }
    particle_surface
    {
        type            patch;
        nFaces          1824;
        startFace       147316;
    }
    procBoundary0to1
    {
        type            processor;
        inGroups        1(processor);
        nFaces          1716;
        startFace       149140;
        matchTolerance  0.0001;
        transform       unknown;
        myProcNo        0;
        neighbProcNo    1;
    }
    procBoundary0to2
    {
        type            processor;
        inGroups        1(processor);
        nFaces          1926;
        startFace       150856;
        matchTolerance  0.0001;
        transform       unknown;
        myProcNo        0;
        neighbProcNo    2;
    }
)

// ************************************************************************* //
