/*--------------------------------*- C++ -*----------------------------------*\
| =========                 |                                                 |
| \\      /  F ield         | OpenFOAM: The Open Source CFD Toolbox           |
|  \\    /   O peration     | Version:  v1906                                 |
|   \\  /    A nd           | Web:      www.OpenFOAM.com                      |
|    \\/     M anipulation  |                                                 |
\*---------------------------------------------------------------------------*/
FoamFile
{
    version     2.0;
    format      ascii;
    class       polyBoundaryMesh;
    location    "constant/polyMesh";
    object      boundary;
}
// * * * * * * * * * * * * * * * * * * * * * * * * * * * * * * * * * * * * * //

4
(
    outlet
    {
        type            patch;
        nFaces          2421;
        startFace       564279;
    }
    inlet
    {
        type            patch;
        nFaces          2421;
        startFace       566700;
    }
    capillary_surface
    {
        type            patch;
        nFaces          26496;
        startFace       569121;
    }
    particle_surface
    {
        type            patch;
        nFaces          6168;
        startFace       595617;
    }
)

// ************************************************************************* //
