/*--------------------------------*- C++ -*----------------------------------*\
| =========                 |                                                 |
| \\      /  F ield         | OpenFOAM: The Open Source CFD Toolbox           |
|  \\    /   O peration     | Version:  v1906                                 |
|   \\  /    A nd           | Web:      www.OpenFOAM.com                      |
|    \\/     M anipulation  |                                                 |
\*---------------------------------------------------------------------------*/
FoamFile
{
    version     2.0;
    format      ascii;
    class       polyBoundaryMesh;
    location    "constant/polyMesh";
    object      boundary;
}
// * * * * * * * * * * * * * * * * * * * * * * * * * * * * * * * * * * * * * //

6
(
    outlet
    {
        type            patch;
        nFaces          1199;
        startFace       138746;
    }
    inlet
    {
        type            patch;
        nFaces          0;
        startFace       139945;
    }
    capillary_surface
    {
        type            patch;
        nFaces          6900;
        startFace       139945;
    }
    particle_surface
    {
        type            patch;
        nFaces          1260;
        startFace       146845;
    }
    procBoundary1to0
    {
        type            processor;
        inGroups        1(processor);
        nFaces          1716;
        startFace       148105;
        matchTolerance  0.0001;
        transform       unknown;
        myProcNo        1;
        neighbProcNo    0;
    }
    procBoundary1to3
    {
        type            processor;
        inGroups        1(processor);
        nFaces          1946;
        startFace       149821;
        matchTolerance  0.0001;
        transform       unknown;
        myProcNo        1;
        neighbProcNo    3;
    }
)

// ************************************************************************* //
