/*--------------------------------*- C++ -*----------------------------------*\
| =========                 |                                                 |
| \\      /  F ield         | OpenFOAM: The Open Source CFD Toolbox           |
|  \\    /   O peration     | Version:  v1906                                 |
|   \\  /    A nd           | Web:      www.OpenFOAM.com                      |
|    \\/     M anipulation  |                                                 |
\*---------------------------------------------------------------------------*/
FoamFile
{
    version     2.0;
    format      binary;
    class       volScalarField;
    object      T;
}
// * * * * * * * * * * * * * * * * * * * * * * * * * * * * * * * * * * * * * //

dimensions      [0 0 0 1 0 0 0];

internalField   uniform 300;

boundaryField
{
    inlet
    {
        type           zeroGradient;
        value          $internalField;
    }
    outlet
    {
        type           zeroGradient;
        value          $internalField;

    }
    top
    {
        type           symmetry;
    }
    bottom
    {
        type           symmetry;
    }
    frontAndBack
    {
        type           empty;
    }
//    back
//    {
//        type           zeroGradient;
//	value	       $internalField;
//    }

}

// ************************************************************************* //
